/*--------------------------------*- C++ -*----------------------------------*\
  =========                 |
  \\      /  F ield         | OpenFOAM: The Open Source CFD Toolbox
   \\    /   O peration     | Website:  https://openfoam.org
    \\  /    A nd           | Version:  7
     \\/     M anipulation  |
\*---------------------------------------------------------------------------*/
FoamFile
{
    version          2.0;
    format           ascii;
    class            dictionary;
    location         "constant";
    object           CanteraTorchProperties;
}
// * * * * * * * * * * * * * * * * * * * * * * * * * * * * * * * * * * * * * //

chemistry            on;

CanteraMechanismFile "HyChem41s.yaml";

transportModel       "Mix";

odeCoeffs
{
    "relTol"         1e-6;
    "absTol"         1e-10;
}

inertSpecie          "N2";

splittingStrategy    off;

TorchSettings
{
    torch             on;
    GPU               on;
    log               on;
    torchModelConfig   "../hy41/config.yaml";
    torchModelWeight  "../hy41/dfnn.ckpt";
    frozenTemperature 810;
    inferenceDeltaTime 1e-7;
    coresPerNode      4;
}

loadbalancing
{
    active           true;
    log              false;
    algorithm        allAverage;//headTail;
}


// ************************************************************************* //
